Version 4
SHEET 1 2500 680
WIRE 272 -512 -368 -512
WIRE 1056 -512 304 -512
WIRE 272 -400 272 -512
WIRE 304 -400 304 -512
WIRE -80 -368 -160 -368
WIRE 256 -368 -80 -368
WIRE 560 -352 336 -352
WIRE 256 -336 64 -336
WIRE 272 -288 272 -304
WIRE 272 -288 -256 -288
WIRE -80 -272 -80 -368
WIRE 64 -272 64 -336
WIRE 512 -256 448 -256
WIRE 640 -256 592 -256
WIRE -80 -144 -80 -192
WIRE 64 -144 64 -192
WIRE 64 -144 -80 -144
WIRE 304 -144 304 -304
WIRE 304 -144 64 -144
WIRE 448 -128 448 -256
WIRE 512 -128 448 -128
WIRE 640 -128 640 -256
WIRE 640 -128 576 -128
WIRE 304 -112 304 -144
WIRE 1056 -96 1056 -512
WIRE -368 -80 -368 -512
WIRE 528 -80 -368 -80
WIRE 528 -16 528 -80
WIRE -368 0 -368 -80
WIRE -160 0 -160 -368
WIRE 0 0 -160 0
WIRE 48 0 0 0
WIRE 80 0 48 0
WIRE 448 0 448 -128
WIRE 448 0 160 0
WIRE 496 0 448 0
WIRE 640 16 640 -128
WIRE 640 16 560 16
WIRE 720 16 640 16
WIRE 496 32 400 32
WIRE 48 96 48 0
WIRE 400 96 400 32
WIRE -368 128 -368 80
WIRE -368 128 -464 128
WIRE -464 160 -464 128
WIRE -160 160 -160 0
WIRE -368 192 -368 128
WIRE -160 304 -160 240
WIRE 48 304 48 160
WIRE 48 304 -160 304
WIRE 400 304 400 176
WIRE 400 304 48 304
WIRE 1056 304 1056 -16
WIRE 1056 304 400 304
WIRE 400 336 400 304
WIRE -368 400 -368 272
WIRE -256 400 -256 -288
WIRE -256 400 -368 400
WIRE 528 400 528 48
WIRE 528 400 -256 400
FLAG 400 336 0
FLAG -464 160 0
FLAG 0 0 input
FLAG 304 -112 0
FLAG 560 -352 compOut
FLAG 720 16 outp
SYMBOL res 176 -16 R90
WINDOW 0 0 56 VBottom 2
WINDOW 3 32 56 VTop 2
SYMATTR InstName R1
SYMATTR Value 51
SYMBOL cap 576 -144 R90
WINDOW 0 0 32 VBottom 2
WINDOW 3 32 32 VTop 2
SYMATTR InstName C2
SYMATTR Value 220pF
SYMBOL voltage -368 -16 R0
SYMATTR InstName V1
SYMATTR Value 2.5
SYMBOL voltage -368 176 R0
SYMATTR InstName V2
SYMATTR Value 2.5
SYMBOL res 608 -272 R90
WINDOW 0 0 56 VBottom 2
WINDOW 3 32 56 VTop 2
SYMATTR InstName R2
SYMATTR Value 10.2k
SYMBOL LTC6248 528 16 R0
SYMATTR InstName U1
SYMBOL voltage 1056 -112 R0
WINDOW 123 0 0 Left 2
WINDOW 39 0 0 Left 2
SYMATTR InstName V4
SYMATTR Value 3.3
SYMBOL res 384 80 R0
SYMATTR InstName R14
SYMATTR Value 10.2k
SYMBOL LT1715 288 -352 R0
SYMATTR InstName U5
SYMBOL voltage 64 -288 R0
WINDOW 123 0 0 Left 0
WINDOW 39 0 0 Left 0
SYMATTR InstName V5
SYMATTR Value -.04
SYMBOL res -96 -288 R0
SYMATTR InstName R16
SYMATTR Value 100k
SYMBOL current -160 160 R0
WINDOW 123 0 0 Left 0
WINDOW 39 0 0 Left 0
SYMATTR InstName I1
SYMATTR Value PWL file=/Users/liambranch/Desktop/Monte-Python/Hummingbird_Run/monte_carlo_input20000ch1_05_07_2023.txt
SYMBOL cap 32 96 R0
SYMATTR InstName C1
SYMATTR Value 120p
TEXT 736 -288 Left 2 !.tran 0 10.5u 0 0.001u
